cdfs/cdf_6bus.txt
TAPE
 08/19/93 UW ARCHIVE            100.0 1962 W 6-BUS TEST SYSTEM
BUS DATA FOLLOWS                      6 ITEMS
   1 GENCO1-Bus-1  1  1  3  1.100   0.00      0.0      0.0     90.0     0.0     0.0  1.100   150.0  -150.0     0.0     0.0    1    1
   2 GENCO2-Bus-2  1  1  2  1.100   0.00      0.0      0.0    140.0     0.0     0.0  1.100   150.0  -150.0     0.0     0.0    2    2
   3 GENCO3-Bus-3  1  1  2  1.100   0.00      0.0      0.0     60.0     0.0     0.0  1.100   150.0  -150.0     0.0     0.0    3    3
   4 ESCO-1-Bus-4  1  1  0  1.000   0.00     90.0     60.0      0.0     0.0     0.0    0.0     0.0     0.0     0.0     0.0    0    4
   5 ESCO-2-Bus-5  1  1  0  1.000   0.00    100.0     70.0      0.0     0.0     0.0    0.0     0.0     0.0     0.0     0.0    0    5
   6 ESCO-3-Bus-6  1  1  0  1.000   0.00     90.0     60.0      0.0     0.0     0.0    0.0     0.0     0.0     0.0     0.0    0    6
-999
BRANCH DATA FOLLOWS                  11 ITEMS
   1    2  1  1 1 0       0.1       0.2      0.04     0     0     0    0 0     0.0     0.0    0.0    0.0    0.0     0.0    0.0     1
   1    4  1  1 1 0      0.05       0.2      0.04     0     0     0    0 0     0.0     0.0    0.0    0.0    0.0     0.0    0.0     2
   1    5  1  1 1 0      0.08       0.3      0.06     0     0     0    0 0     0.0     0.0    0.0    0.0    0.0     0.0    0.0     3
   2    3  1  1 1 0      0.05      0.25      0.06     0     0     0    0 0     0.0     0.0    0.0    0.0    0.0     0.0    0.0     4
   2    4  1  1 1 0      0.05       0.1      0.02     0     0     0    0 0     0.0     0.0    0.0    0.0    0.0     0.0    0.0     5
   2    5  1  1 1 0       0.1       0.3      0.04     0     0     0    0 0     0.0     0.0    0.0    0.0    0.0     0.0    0.0     6
   2    6  1  1 1 0      0.07       0.2      0.05     0     0     0    0 0     0.0     0.0    0.0    0.0    0.0     0.0    0.0     7
   3    5  1  1 1 0      0.12      0.26      0.05     0     0     0    0 0     0.0     0.0    0.0    0.0    0.0     0.0    0.0     8
   3    6  1  1 1 0      0.02       0.1      0.02     0     0     0    0 0     0.0     0.0    0.0    0.0    0.0     0.0    0.0     9
   4    5  1  1 1 0       0.2       0.4      0.08     0     0     0    0 0     0.0     0.0    0.0    0.0    0.0     0.0    0.0    10
   5    6  1  1 1 0       0.1       0.3      0.06     0     0     0    0 0     0.0     0.0    0.0    0.0    0.0     0.0    0.0    11
-999
LOSS ZONES FOLLOWS                          1 ITEMS
  1 6-BUS
-99
INTERCHANGE DATA FOLLOWS                    0 ITEMS
-9
TIE LINES FOLLOWS                           0 ITEMS
-999
END OF DATA